// -*- C++ -*-
// File generated by PyFoam - sorry for the ugliness

FoamFile
{
 version 2.0;
 format ascii;
 class dictionary;
 location "system";
 object controlDict;
}

application phiFoam;

startFrom latestTime;

startTime 0;

stopAt endTime;

endTime 0;

deltaT 1;

writeControl timeStep;

writeInterval 1;

purgeWrite 0;

writeFormat ascii;

writePrecision 8;

writeCompression no;
timeFormat general;

timePrecision 6;

runTimeModifiable yes;
functions
{
} 	// ************************************************************************* //

