/*--------------------------------*- C++ -*----------------------------------*\
  =========                 |
  \\      /  F ield         | OpenFOAM: The Open Source CFD Toolbox
   \\    /   O peration     | Website:  https://openfoam.org
    \\  /    A nd           | Version:  7
     \\/     M anipulation  |
\*---------------------------------------------------------------------------*/
FoamFile
{
    version     2.0;
    format      ascii;
    class       dictionary;
    location    "system";
    object      fvSchemes;
}
// * * * * * * * * * * * * * * * * * * * * * * * * * * * * * * * * * * * * * //

ddtSchemes
{
    default         steadyState;
}

gradSchemes
{
    default         Gauss linear;
	grad(cw)		cellLimited Gauss linear 1;
}

divSchemes
{
    default         none;
//  div(phi,U)      bounded Gauss upwind;
    div(phi,U)      bounded Gauss linear;
    div(phi,h)      bounded Gauss upwind;
    div(phi,cw)	    bounded Gauss limitedLinear01 1;
    div(phi,e)      bounded Gauss upwind;
//  div(phiv,p)     Gauss upwind;
    div(phiv,p)     bounded Gauss upwind;
    div(phi,K)      bounded Gauss upwind;
    div(phi,k)      bounded Gauss upwind;
    div(phi,epsilon) bounded Gauss upwind;
    div(((rho*nuEff)*dev2(T(grad(U))))) Gauss linear;
	div((nuEff*dev2(T(grad(U)))))	Gauss linear;
}

laplacianSchemes
{
    default         Gauss linear orthogonal;
}

interpolationSchemes
{
    default         linear;
}

snGradSchemes
{
    default         orthogonal;
}

// ************************************************************************* //
