// -*- C++ -*-
// File generated by PyFoam - sorry for the ugliness

FoamFile
{
 version 2.0;
 format ascii;
 class dictionary;
 object blockMeshDict;
}

l 0.1;

b -0.0004939431954934455;

h 0.7;

nx 32;

ny 16;

nz 16;

gx 1;

gy 1;

gz 1;

vertices
  (

    (
      0
      $b
      $h
    )

    (
      0
      0
      $h
    )

    (
      $l
      0
      $h
    )

    (
      $l
      $b
      $h
    )

    (
      0
      $b
      0
    )
    (0 0 0)

    (
      $l
      0
      0
    )

    (
      $l
      $b
      0
    )
  ); 	// 0// 1// 2// 3// 4// 5// 6// 7

blocks
  (
    hex

    (
      4
      7
      6
      5
      0
      3
      2
      1
    )

    (
      $nx
      $ny
      $nz
    )
    simpleGrading

    (

      (
        (0.1 0.2 5)
        (0.9 0.8 1)
      )

      (
        (0.75 0.5 1)
        (0.15 0.5 0.2)
      )
      $gz
    )
  ); 	// (Ly Lx Lz)

edges
  (
  );

boundary
  (
    inlet

    {
      type patch;
      faces
        (

          (
            4
            7
            6
            5
          )
        );

    }
    outlet

    {
      type patch;
      faces
        (

          (
            0
            3
            2
            1
          )
        );

    }
    wall

    {
      type wall;
      faces
        (

          (
            0
            4
            7
            3
          )
        );

    }
    front_back

    {
      type patch;
      faces
        (

          (
            0
            4
            5
            1
          )

          (
            3
            7
            6
            2
          )
        );

    }
    solution_to_air

    {
      type patch;
      faces
        (

          (
            1
            5
            6
            2
          )
        );

    }
  );

mergePatchPairs
  (
  ); 	// ************************************************************************* //

